 xtb: 6.7.1 (edcfbbe)
          04032513513D

 13 13  0     0  0            999 V2000
   -2.4120   -0.1023   -0.0000 C   0  0  0  0  0  0  0  0  0  0  0  0
   -1.8291   -1.3574    0.0001 C   0  0  0  0  0  0  0  0  0  0  0  0
   -0.4492   -1.4755    0.0000 C   0  0  0  0  0  0  0  0  0  0  0  0
    0.3347   -0.3379    0.0001 C   0  0  0  0  0  0  0  0  0  0  0  0
   -0.2368    0.9358    0.0001 C   0  0  0  0  0  0  0  0  0  0  0  0
   -1.6245    1.0346   -0.0001 C   0  0  0  0  0  0  0  0  0  0  0  0
    0.5764    2.0179    0.0001 O   0  0  0  0  0  0  0  0  0  0  0  0
    2.0715   -0.4738   -0.0001 Cl  0  0  0  0  0  0  0  0  0  0  0  0
   -3.4858   -0.0036    0.0001 H   0  0  0  0  0  0  0  0  0  0  0  0
   -2.4403   -2.2448   -0.0000 H   0  0  0  0  0  0  0  0  0  0  0  0
    0.0255   -2.4428   -0.0001 H   0  0  0  0  0  0  0  0  0  0  0  0
   -2.0834    2.0118   -0.0001 H   0  0  0  0  0  0  0  0  0  0  0  0
    0.0549    2.8360    0.0001 H   0  0  0  0  0  0  0  0  0  0  0  0
  1  2  4  0  0  0  0
  2  3  4  0  0  0  0
  3  4  4  0  0  0  0
  4  5  4  0  0  0  0
  1  6  4  0  0  0  0
  5  6  4  0  0  0  0
  5  7  1  0  0  0  0
  4  8  1  0  0  0  0
  1  9  1  0  0  0  0
  2 10  1  0  0  0  0
  3 11  1  0  0  0  0
  6 12  1  0  0  0  0
  7 13  1  0  0  0  0
M  END
